134828254
  -OEChem-12142411312D

 85 88  0     1  0  0  0  0  0999 V2000
    5.5637    2.1530    0.0000 S   0  0  0  0  0  0  0  0  0  0  0  0
   10.1921   -0.4117    0.0000 S   0  0  0  0  0  0  0  0  0  0  0  0
    4.8494    5.5427    0.0000 F   0  0  0  0  0  0  0  0  0  0  0  0
    6.3246   -3.8820    0.0000 O   0  0  0  0  0  0  0  0  0  0  0  0
    4.6318   -0.6985    0.0000 O   0  0  0  0  0  0  0  0  0  0  0  0
    4.6132    2.4637    0.0000 O   0  0  0  0  0  0  0  0  0  0  0  0
    6.5143    1.8424    0.0000 O   0  0  0  0  0  0  0  0  0  0  0  0
   14.7740   -0.3312    0.0000 O   0  0  0  0  0  0  0  0  0  0  0  0
   13.4848   -1.4879    0.0000 O   0  0  0  0  0  0  0  0  0  0  0  0
    7.6138   -2.7252    0.0000 N   0  0  0  0  0  0  0  0  0  0  0  0
    6.2781   -1.2366    0.0000 N   0  0  0  0  0  0  0  0  0  0  0  0
    5.2531    1.2025    0.0000 N   0  0  0  0  0  0  0  0  0  0  0  0
    4.6783   -4.9533    0.0000 N   0  0  0  0  0  0  0  0  0  0  0  0
    9.8349    1.2831    0.0000 N   0  0  0  0  0  0  0  0  0  0  0  0
   11.4813    0.7450    0.0000 N   0  0  0  0  0  0  0  0  0  0  0  0
    8.2816   -3.4695    0.0000 C   0  0  0  0  0  0  0  0  0  0  0  0
    8.2276   -4.4681    0.0000 C   0  0  0  0  0  0  0  0  0  0  0  0
    9.2802   -3.5236    0.0000 C   0  0  0  0  0  0  0  0  0  0  0  0
    9.2261   -4.5221    0.0000 C   0  0  0  0  0  0  0  0  0  0  0  0
    6.6353   -2.9314    0.0000 C   0  0  0  0  0  0  0  0  0  0  0  0
    5.9674   -2.1871    0.0000 C   0  0  2  0  0  0  0  0  0  0  0  0
    4.9889   -2.3934    0.0000 C   0  0  0  0  0  0  0  0  0  0  0  0
    5.9209    0.4582    0.0000 C   0  0  2  0  0  0  0  0  0  0  0  0
    4.6783   -3.3439    0.0000 C   0  0  0  0  0  0  0  0  0  0  0  0
    5.6103   -0.4923    0.0000 C   0  0  0  0  0  0  0  0  0  0  0  0
    6.8994    0.6644    0.0000 C   0  0  0  0  0  0  0  0  0  0  0  0
    7.2101    1.6149    0.0000 C   0  0  0  0  0  0  0  0  0  0  0  0
    3.7320   -3.6486    0.0000 C   0  0  0  0  0  0  0  0  0  0  0  0
    5.2619   -4.1486    0.0000 C   0  0  0  0  0  0  0  0  0  0  0  0
    8.1886    1.8212    0.0000 C   0  0  0  0  0  0  0  0  0  0  0  0
    3.7320   -4.6486    0.0000 C   0  0  0  0  0  0  0  0  0  0  0  0
    2.8660   -3.1486    0.0000 C   0  0  0  0  0  0  0  0  0  0  0  0
    8.8564    1.0769    0.0000 C   0  0  0  0  0  0  0  0  0  0  0  0
    2.8660   -5.1486    0.0000 C   0  0  0  0  0  0  0  0  0  0  0  0
    5.8744    3.1035    0.0000 C   0  0  0  0  0  0  0  0  0  0  0  0
    2.0000   -3.6486    0.0000 C   0  0  0  0  0  0  0  0  0  0  0  0
    2.0000   -4.6486    0.0000 C   0  0  0  0  0  0  0  0  0  0  0  0
    6.8529    3.3098    0.0000 C   0  0  0  0  0  0  0  0  0  0  0  0
    5.2066    3.8478    0.0000 C   0  0  0  0  0  0  0  0  0  0  0  0
   10.5028    0.5388    0.0000 C   0  0  0  0  0  0  0  0  0  0  0  0
    5.5172    4.7984    0.0000 C   0  0  0  0  0  0  0  0  0  0  0  0
    7.1636    4.2603    0.0000 C   0  0  0  0  0  0  0  0  0  0  0  0
    6.4957    5.0046    0.0000 C   0  0  0  0  0  0  0  0  0  0  0  0
   12.1491    0.0007    0.0000 C   0  0  0  0  0  0  0  0  0  0  0  0
   13.1276    0.2069    0.0000 C   0  0  0  0  0  0  0  0  0  0  0  0
   13.7955   -0.5374    0.0000 C   0  0  0  0  0  0  0  0  0  0  0  0
    8.5495   -2.9104    0.0000 H   0  0  0  0  0  0  0  0  0  0  0  0
    7.6085   -4.4345    0.0000 H   0  0  0  0  0  0  0  0  0  0  0  0
    8.1940   -5.0872    0.0000 H   0  0  0  0  0  0  0  0  0  0  0  0
    9.8993   -3.5571    0.0000 H   0  0  0  0  0  0  0  0  0  0  0  0
    9.3137   -2.9045    0.0000 H   0  0  0  0  0  0  0  0  0  0  0  0
    9.1926   -5.1412    0.0000 H   0  0  0  0  0  0  0  0  0  0  0  0
    9.8452   -4.5556    0.0000 H   0  0  0  0  0  0  0  0  0  0  0  0
    7.8064   -2.1359    0.0000 H   0  0  0  0  0  0  0  0  0  0  0  0
    5.5534   -1.7257    0.0000 H   0  0  0  0  0  0  0  0  0  0  0  0
    4.9684   -1.7737    0.0000 H   0  0  0  0  0  0  0  0  0  0  0  0
    4.3751   -2.3060    0.0000 H   0  0  0  0  0  0  0  0  0  0  0  0
    6.8848   -1.1088    0.0000 H   0  0  0  0  0  0  0  0  0  0  0  0
    6.1135    1.0475    0.0000 H   0  0  0  0  0  0  0  0  0  0  0  0
    6.9200    0.0448    0.0000 H   0  0  0  0  0  0  0  0  0  0  0  0
    7.5132    0.5771    0.0000 H   0  0  0  0  0  0  0  0  0  0  0  0
    7.1895    2.2346    0.0000 H   0  0  0  0  0  0  0  0  0  0  0  0
    6.5963    1.7023    0.0000 H   0  0  0  0  0  0  0  0  0  0  0  0
    4.6464    1.0747    0.0000 H   0  0  0  0  0  0  0  0  0  0  0  0
    5.8819   -4.1486    0.0000 H   0  0  0  0  0  0  0  0  0  0  0  0
    8.7150    2.1488    0.0000 H   0  0  0  0  0  0  0  0  0  0  0  0
    7.9573    2.3964    0.0000 H   0  0  0  0  0  0  0  0  0  0  0  0
    4.8709   -5.5427    0.0000 H   0  0  0  0  0  0  0  0  0  0  0  0
    2.8660   -2.5286    0.0000 H   0  0  0  0  0  0  0  0  0  0  0  0
    8.3301    0.7492    0.0000 H   0  0  0  0  0  0  0  0  0  0  0  0
    9.0877    0.5016    0.0000 H   0  0  0  0  0  0  0  0  0  0  0  0
    2.8660   -5.7686    0.0000 H   0  0  0  0  0  0  0  0  0  0  0  0
    1.4631   -3.3386    0.0000 H   0  0  0  0  0  0  0  0  0  0  0  0
    1.4631   -4.9586    0.0000 H   0  0  0  0  0  0  0  0  0  0  0  0
   10.0276    1.8724    0.0000 H   0  0  0  0  0  0  0  0  0  0  0  0
    7.2670    2.8483    0.0000 H   0  0  0  0  0  0  0  0  0  0  0  0
    4.5999    3.7200    0.0000 H   0  0  0  0  0  0  0  0  0  0  0  0
    7.7702    4.3881    0.0000 H   0  0  0  0  0  0  0  0  0  0  0  0
    6.6883    5.5939    0.0000 H   0  0  0  0  0  0  0  0  0  0  0  0
   11.6739    1.3343    0.0000 H   0  0  0  0  0  0  0  0  0  0  0  0
   11.6228   -0.3269    0.0000 H   0  0  0  0  0  0  0  0  0  0  0  0
   12.3804   -0.5746    0.0000 H   0  0  0  0  0  0  0  0  0  0  0  0
   13.6540    0.5346    0.0000 H   0  0  0  0  0  0  0  0  0  0  0  0
   12.8964    0.7822    0.0000 H   0  0  0  0  0  0  0  0  0  0  0  0
   15.1881   -0.7926    0.0000 H   0  0  0  0  0  0  0  0  0  0  0  0
  1  6  2  0  0  0  0
  1  7  2  0  0  0  0
  1 12  1  0  0  0  0
  1 35  1  0  0  0  0
  2 40  2  0  0  0  0
  3 41  1  0  0  0  0
  4 20  2  0  0  0  0
  5 25  2  0  0  0  0
  8 46  1  0  0  0  0
  8 85  1  0  0  0  0
  9 46  2  0  0  0  0
 10 16  1  0  0  0  0
 10 20  1  0  0  0  0
 10 54  1  0  0  0  0
 21 11  1  6  0  0  0
 11 25  1  0  0  0  0
 11 58  1  0  0  0  0
 23 12  1  1  0  0  0
 12 64  1  0  0  0  0
 13 29  1  0  0  0  0
 13 31  1  0  0  0  0
 13 68  1  0  0  0  0
 14 33  1  0  0  0  0
 14 40  1  0  0  0  0
 14 75  1  0  0  0  0
 15 40  1  0  0  0  0
 15 44  1  0  0  0  0
 15 80  1  0  0  0  0
 16 17  1  0  0  0  0
 16 18  1  0  0  0  0
 16 47  1  0  0  0  0
 17 19  1  0  0  0  0
 17 48  1  0  0  0  0
 17 49  1  0  0  0  0
 18 19  1  0  0  0  0
 18 50  1  0  0  0  0
 18 51  1  0  0  0  0
 19 52  1  0  0  0  0
 19 53  1  0  0  0  0
 20 21  1  0  0  0  0
 21 22  1  0  0  0  0
 21 55  1  0  0  0  0
 22 24  1  0  0  0  0
 22 56  1  0  0  0  0
 22 57  1  0  0  0  0
 23 25  1  0  0  0  0
 23 26  1  0  0  0  0
 23 59  1  0  0  0  0
 24 28  1  0  0  0  0
 24 29  2  0  0  0  0
 26 27  1  0  0  0  0
 26 60  1  0  0  0  0
 26 61  1  0  0  0  0
 27 30  1  0  0  0  0
 27 62  1  0  0  0  0
 27 63  1  0  0  0  0
 28 31  1  0  0  0  0
 28 32  2  0  0  0  0
 29 65  1  0  0  0  0
 30 33  1  0  0  0  0
 30 66  1  0  0  0  0
 30 67  1  0  0  0  0
 31 34  2  0  0  0  0
 32 36  1  0  0  0  0
 32 69  1  0  0  0  0
 33 70  1  0  0  0  0
 33 71  1  0  0  0  0
 34 37  1  0  0  0  0
 34 72  1  0  0  0  0
 35 38  2  0  0  0  0
 35 39  1  0  0  0  0
 36 37  2  0  0  0  0
 36 73  1  0  0  0  0
 37 74  1  0  0  0  0
 38 42  1  0  0  0  0
 38 76  1  0  0  0  0
 39 41  2  0  0  0  0
 39 77  1  0  0  0  0
 41 43  1  0  0  0  0
 42 43  2  0  0  0  0
 42 78  1  0  0  0  0
 43 79  1  0  0  0  0
 44 45  1  0  0  0  0
 44 81  1  0  0  0  0
 44 82  1  0  0  0  0
 45 46  1  0  0  0  0
 45 83  1  0  0  0  0
 45 84  1  0  0  0  0
M  END
> <PUBCHEM_COMPOUND_CID>
134828254

> <PUBCHEM_COMPOUND_CANONICALIZED>
1

> <PUBCHEM_CACTVS_COMPLEXITY>
1150

> <PUBCHEM_CACTVS_HBOND_ACCEPTOR>
9

> <PUBCHEM_CACTVS_HBOND_DONOR>
7

> <PUBCHEM_CACTVS_ROTATABLE_BOND>
17

> <PUBCHEM_CACTVS_SUBSKEYS>
AAADcfB7uQBgAAAAAAAAAAAAAABgAWAAAAAwYAAAAAAAAFgB9AAAHwQQSAAADCjB3gw9yfLJkgKsAzX3XHDCgDAxAikI2bm4ZJiIYPrAkbGUYAhqlgLIyAcYicCOgAAAAAACAAAAAAAAAAQAAAAAAAAAAA==

> <PUBCHEM_IUPAC_OPENEYE_NAME>
3-[[(5S)-6-[[(1S)-2-(cyclobutylamino)-1-(1H-indol-3-ylmethyl)-2-oxo-ethyl]amino]-5-[(3-fluorophenyl)sulfonylamino]-6-oxo-hexyl]carbamothioylamino]propanoic acid

> <PUBCHEM_IUPAC_CAS_NAME>
3-[[[[(5S)-6-[[(2S)-1-(cyclobutylamino)-3-(1H-indol-3-yl)-1-oxopropan-2-yl]amino]-5-[(3-fluorophenyl)sulfonylamino]-6-oxohexyl]amino]-sulfanylidenemethyl]amino]propanoic acid

> <PUBCHEM_IUPAC_NAME_MARKUP>
3-[[(5<I>S</I>)-6-[[(2<I>S</I>)-1-(cyclobutylamino)-3-(1<I>H</I>-indol-3-yl)-1-oxopropan-2-yl]amino]-5-[(3-fluorophenyl)sulfonylamino]-6-oxohexyl]carbamothioylamino]propanoic acid

> <PUBCHEM_IUPAC_NAME>
3-[[(5S)-6-[[(2S)-1-(cyclobutylamino)-3-(1H-indol-3-yl)-1-oxopropan-2-yl]amino]-5-[(3-fluorophenyl)sulfonylamino]-6-oxohexyl]carbamothioylamino]propanoic acid

> <PUBCHEM_IUPAC_SYSTEMATIC_NAME>
3-[[(5S)-6-[[(2S)-1-(cyclobutylamino)-3-(1H-indol-3-yl)-1-oxidanylidene-propan-2-yl]amino]-5-[(3-fluorophenyl)sulfonylamino]-6-oxidanylidene-hexyl]carbamothioylamino]propanoic acid

> <PUBCHEM_IUPAC_TRADITIONAL_NAME>
3-[[(5S)-6-[[(1S)-2-(cyclobutylamino)-1-(1H-indol-3-ylmethyl)-2-keto-ethyl]amino]-5-[(3-fluorophenyl)sulfonylamino]-6-keto-hexyl]thiocarbamoylamino]propionic acid

> <PUBCHEM_IUPAC_INCHI>
InChI=1S/C31H39FN6O6S2/c32-21-7-5-10-23(18-21)46(43,44)38-26(13-3-4-15-33-31(45)34-16-14-28(39)40)29(41)37-27(30(42)36-22-8-6-9-22)17-20-19-35-25-12-2-1-11-24(20)25/h1-2,5,7,10-12,18-19,22,26-27,35,38H,3-4,6,8-9,13-17H2,(H,36,42)(H,37,41)(H,39,40)(H2,33,34,45)/t26-,27-/m0/s1

> <PUBCHEM_IUPAC_INCHIKEY>
NEJMWPNVCQYZKG-SVBPBHIXSA-N

> <PUBCHEM_XLOGP3_AA>
3.1

> <PUBCHEM_EXACT_MASS>
674.23565349

> <PUBCHEM_MOLECULAR_FORMULA>
C31H39FN6O6S2

> <PUBCHEM_MOLECULAR_WEIGHT>
674.8

> <PUBCHEM_OPENEYE_CAN_SMILES>
C1CC(C1)NC(=O)C(CC2=CNC3=CC=CC=C32)NC(=O)C(CCCCNC(=S)NCCC(=O)O)NS(=O)(=O)C4=CC=CC(=C4)F

> <PUBCHEM_OPENEYE_ISO_SMILES>
C1CC(C1)NC(=O)[C@H](CC2=CNC3=CC=CC=C32)NC(=O)[C@H](CCCCNC(=S)NCCC(=O)O)NS(=O)(=O)C4=CC=CC(=C4)F

> <PUBCHEM_CACTVS_TPSA>
222

> <PUBCHEM_MONOISOTOPIC_WEIGHT>
674.23565349

> <PUBCHEM_TOTAL_CHARGE>
0

> <PUBCHEM_HEAVY_ATOM_COUNT>
46

> <PUBCHEM_ATOM_DEF_STEREO_COUNT>
2

> <PUBCHEM_ATOM_UDEF_STEREO_COUNT>
0

> <PUBCHEM_BOND_DEF_STEREO_COUNT>
0

> <PUBCHEM_BOND_UDEF_STEREO_COUNT>
0

> <PUBCHEM_ISOTOPIC_ATOM_COUNT>
0

> <PUBCHEM_COMPONENT_COUNT>
1

> <PUBCHEM_CACTVS_TAUTO_COUNT>
-1

> <PUBCHEM_COORDINATE_TYPE>
1
5
255

> <PUBCHEM_BONDANNOTATIONS>
21  11  6
23  12  5
13  29  8
13  31  8
24  28  8
24  29  8
28  31  8
28  32  8
31  34  8
32  36  8
34  37  8
35  38  8
35  39  8
36  37  8
38  42  8
39  41  8
41  43  8
42  43  8

$$$$
